* Deltares, D-Flow FM Version 1.1.179.45170, Mar 22 2016, 14:45:56
* File creation date: 16:58:38, 01-08-2016
** INFO   :  MAXIMUM NUMBER OF LINKS         :            2
** INFO   :  MAXIMUM NUMBER OF NODES         :            0
** INFO   :  RESOLUTION GRAPHICS SCREEN      :         1600         990
** INFO   :  RESOLUTION TEXT     SCREEN      :          200          66
** INFO   :  NUMBER OF COLOURS AVAILABLE     :          256
** DEBUG  :            0  0.1000020     NOD(KMAX)
** DEBUG  :            6  0.7000140     XK (KMAX), YK (KMAX), ZK (KMAX), KC (KMAX), NMK (KMAX), RNOD(KMAX)
** DEBUG  :            6  9.9999998E-03 XS(NSMAX),YS(NSMAX),ZS(NSMAX),IPSAM(NSMAX)
** DEBUG  :            6  5.0000001E-02 xlan(maxlan)
** DEBUG  :            7  5.0000001E-02 ylan(maxlan)
** DEBUG  :            7  5.0000001E-02 zlan(maxlan)
** DEBUG  :            7  2.5000000E-02 nclan(maxlan)
** INFO   : Load MDU-file                    (*.mdu)
** INFO   : Opened file : zm_tide.mdu
** INFO   : Closed file : zm_tide.mdu
** DEBUG  :            8  0.1000020     NOD(KMAX)
** DEBUG  :           14  0.7000140     XK (KMAX), YK (KMAX), ZK (KMAX), KC (KMAX), NMK (KMAX), RNOD(KMAX)
** DEBUG  :           14  1.4400000E-03 xsp(maxspl, maxsplen)
** DEBUG  :           14  1.4400000E-03 ysp(maxspl, maxsplen)
** DEBUG  :           14  1.4400000E-03 xsp2(maxspl, maxsplen)
** DEBUG  :           14  1.4400000E-03 ysp2(maxspl, maxsplen)
** DEBUG  :           14  9.9999998E-03 XS(NSMAX),YS(NSMAX),ZS(NSMAX),IPSAM(NSMAX)
** DEBUG  :           14  5.9999999E-02 xlan(maxlan)
** DEBUG  :           15  5.9999999E-02 ylan(maxlan)
** DEBUG  :           15  5.9999999E-02 zlan(maxlan)
** DEBUG  :           16  2.9999999E-02 nclan(maxlan)
 Until here copy of previous diagnostic file
** WARNING: TimeSplitInterval invalid, disabling time partitioning of output. Got: 0X
** WARNING: readMDUFile: [numerics] cflwavefrac=0.1 was in file, but not used. Check possible typo.
** WARNING: readMDUFile: [wind] gapres=101325.0000000 was in file, but not used. Check possible typo.
** WARNING: readMDUFile: [zsediment] sedimentmodelnr=2 was in file, but not used. Check possible typo.
** WARNING: readMDUFile: [zsediment] nr_of_sedfractions=1 was in file, but not used. Check possible typo.
** WARNING: readMDUFile: [zsediment] mxgrkrone=0 was in file, but not used. Check possible typo.
** WARNING: readMDUFile: [zsediment] d50=.0005 was in file, but not used. Check possible typo.
** WARNING: readMDUFile: [zsediment] rhosed=2650. was in file, but not used. Check possible typo.
** WARNING: readMDUFile: [zsediment] initialsedimentconcentration=0. was in file, but not used. Check possible typo.
** WARNING: readMDUFile: [zsediment] uniformerodablethickness=20. was in file, but not used. Check possible typo.
** WARNING: readMDUFile: [zsediment] numintverticaleinstein=7 was in file, but not used. Check possible typo.
** WARNING: readMDUFile: [zsediment] jaceneqtr=2 was in file, but not used. Check possible typo.
** WARNING: readMDUFile: [zsediment] morfac=100. was in file, but not used. Check possible typo.
** WARNING: readMDUFile: [zsediment] tmorfspinup=0. was in file, but not used. Check possible typo.
** DEBUG  : Opened 'scenarioA_04_wbthy_net.nc' as #         3.
** DEBUG  : Closed NetCDF file 'scenarioA_04_wbthy_net.nc.
** INFO   : Opened file : zm_tide_obs.xyn
** INFO   : Closed file : zm_tide_obs.xyn
** INFO   : Opened file : zm_tide_crs.pli
** INFO   : Closed file : zm_tide_crs.pli
** INFO   : Start of the computation time loop
** INFO   : Initializing flow model geometry...
** DEBUG  : Opened 'scenarioA_04_wbthy_net.nc' as #         3.
** WARNING: Could not read cells from NetCDF file 'scenarioA_04_wbthy_net.nc' (is not critical). Details follow:
** WARNING: NetCDF error: Invalid dimension id or name (nNetElem)
** DEBUG  :           16  2.7208000E-02 netcell(numpx1)
** DEBUG  :           16  4.2254001E-02 lnn(numl)
** DEBUG  :           17  8.4508002E-02 lne(2,numl)
** DEBUG  :           17  2.4116000E-02 xz(numc)
** DEBUG  :           17  2.4116000E-02 yz(numc)
** DEBUG  :           17  2.4116000E-02 xzw(numc)
** DEBUG  :           18  2.4116000E-02 yzw(numc)
** DEBUG  :           18  2.4116000E-02 ba(numc)
** INFO   : Opened file : zm_tide.ext
** DEBUG  :           18  4.2254001E-02 xe (nx)
** DEBUG  :           18  4.2254001E-02 ye (nx)
** DEBUG  :           19  4.2254001E-02 xyen(2, nx)
** DEBUG  :           25  0.7183180     kce(nx), ke(nx), kez(nx), keu(nx), kes(nx), ketm(nx), kesd(nx), keuxy(nx), ket(nx), ken(nx), ke1d2d(nx), keg(nx), ked(nx), kep(nx), kegs(nx), kegen(nx), itpez(nx), itpenz(nx), itpeu(nx) , itpenu(nx) , kew(nx)
** DEBUG  :           25  4.2254001E-02 ketr(1,nx)
** INFO   : Opened file : zm_tide_001.pli
** INFO   : Closed file : zm_tide_001.pli
** INFO   : boundary: 'zm_tide_001.pli' opened 75 cells.
** INFO   : neumannbnd zm_tide_001.pli      75 nr of open bndcells
** INFO   : Opened file : zm_tide_002.pli
** INFO   : Closed file : zm_tide_002.pli
** INFO   : boundary: 'zm_tide_002.pli' opened 90 cells.
** INFO   : waterlevelbnd zm_tide_002.pli      90 nr of open bndcells
** INFO   : Opened file : zm_tide_003.pli
** INFO   : Closed file : zm_tide_003.pli
** INFO   : boundary: 'zm_tide_003.pli' opened 75 cells.
** INFO   : neumannbnd zm_tide_003.pli      75 nr of open bndcells
** DEBUG  :           26  0.1948480     nd(ndx), bl(ndx), bai(ndx), kcs(ndx), aif(ndx)
** DEBUG  :           29  8.4204003E-02 ln   (2,lnx)
** DEBUG  :           30  8.4204003E-02 lncn (2,lnx)
** DEBUG  :           31  8.4204003E-02 bob  (2,lnx)
** DEBUG  :           31  4.2102002E-02 dx   (  lnx)
** DEBUG  :           31  4.2102002E-02 dxi  (  lnx)
** DEBUG  :           32  4.2102002E-02 wu   (  lnx)
** DEBUG  :           32  4.2102002E-02 wui  (  lnx)
** DEBUG  :           32  4.2102002E-02 kcu  (  lnx)
** DEBUG  :           33  4.2102002E-02 csu  (  lnx)
** DEBUG  :           33  4.2102002E-02 snu  (  lnx)
** DEBUG  :           33  4.2102002E-02 acl  (  lnx)
** DEBUG  :           34  4.2102002E-02 acn  (2,lnx)
** DEBUG  :           34  4.2102002E-02 iadv   (lnx)
** DEBUG  :           34  4.2102002E-02 teta   (lnx)
** DEBUG  :           35  4.2102002E-02 ibot   (lnx)
** DEBUG  :           36  0.1263060     xu(lnx), yu(lnx) , blu(lnx)
** DEBUG  :           36  4.2254001E-02 ln2lne (nex)
** DEBUG  :           36  4.2254001E-02 lne2ln (nex)
** DEBUG  : addexternalboundarypoints: added 0 bnd points for SOBEK1D-FM2D connections.
** DEBUG  :           37  1.8138999E-02  cn (numk)
** DEBUG  :           37  1.8138999E-02 ucnx(numk)
** DEBUG  :           37  1.8138999E-02 ucny(numk)
** DEBUG  :           38  1.8138999E-02 ban (numk)
** DEBUG  :           38  4.2102002E-02 wcx1(lnx)
** DEBUG  :           38  4.2102002E-02 wcy1(lnx)
** DEBUG  :           39  4.2102002E-02 wcx2(lnx)
** DEBUG  :           39  4.2102002E-02 wcy2(lnx)
** DEBUG  :           39  4.8712000E-02 wcxy (2,ndx)
** DEBUG  :           40  8.4204003E-02 wcL  (2,Lnx)
** DEBUG  :           40  2.4356000E-02 wc     (ndx)
** DEBUG  :           40  4.2102002E-02 wcnx3(lnx)
** DEBUG  :           41  4.2102002E-02 wcny3(lnx)
** DEBUG  :           41  4.2102002E-02 wcnx4(lnx)
** DEBUG  :           41  4.2102002E-02 wcny4(lnx)
** DEBUG  :           42  5.4416999E-02 wcnxy (3,numk)
** DEBUG  :           42  1.8138999E-02 jacorner(numk)
** DEBUG  :           42  2.4319999E-03 walls(17,nw)
** DEBUG  :           43  8.4115997E-02 banf(mxban)
** DEBUG  :           44  8.4115997E-02 nban(4,mxban)
** DEBUG  :           45  8.4115997E-02 rr(mxban), nr(mxban)
** DEBUG  :           45  8.4115997E-02 banh (mxban)
** DEBUG  :           46  8.4115997E-02 nbanh(4,mxban)
** INFO   : Done initializing flow model geometry.
** DEBUG  :           47  4.8712000E-02 s0  (ndx) , s1  (ndx)
** DEBUG  :           47  4.8712000E-02 a0  (ndx) , a1  (ndx)
** DEBUG  :           47  4.8712000E-02 hs  (ndx) , s00 (ndx)
** DEBUG  :           47  2.4356000E-02 cfs (ndx)
** DEBUG  :           48  2.4356000E-02 kbot (ndx)
** DEBUG  :           48  2.4356000E-02 ktop (ndx)
** DEBUG  :           48  2.4356000E-02 ktop0(ndx)
** DEBUG  :           48  2.4356000E-02 kmxn (ndx)
** DEBUG  :           49  4.2102002E-02 Lbot (Lnx)
** DEBUG  :           49  4.2102002E-02 Ltop (Lnx)
** DEBUG  :           49  4.2102002E-02 kmxL (Lnx)
** DEBUG  :           50  4.2102002E-02 ustb  (lnx)
** DEBUG  :           50  4.2102002E-02 ustw  (lnx)
** DEBUG  :           50  2.4356000E-02 laydefnr(ndx)
** DEBUG  :           50  2.4356000E-02 rho (ndkx)
** DEBUG  :           51  4.8712000E-02 ucx (ndkx) , ucy (ndkx)
** DEBUG  :           51  2.4356000E-02 workx (ndkx)
** DEBUG  :           51  2.4356000E-02 worky (ndkx)
** DEBUG  :           51  4.2102002E-02 work1 ( max(kmx,1),max(ndx,lnx))
** DEBUG  :           52  4.8712000E-02 uqcx(ndkx) , uqcy(ndkx)
** DEBUG  :           52  4.8712000E-02 ucxq(ndkx) , ucyq(ndkx)
** DEBUG  :           53  4.8712000E-02 qin (ndkx) , vih (ndkx)
** DEBUG  :           53  4.8712000E-02 dvxc(ndkx) , dvyc(ndkx)
** DEBUG  :           53  2.4356000E-02 cfli(ndkx)
** DEBUG  :           53  2.4356000E-02 squ (ndkx)
** DEBUG  :           54  2.4356000E-02 sqi (ndkx)
** DEBUG  :           54  2.4356000E-02 sq  (ndkx)
** DEBUG  :           54  2.4356000E-02 vol0(ndkx)
** DEBUG  :           54  2.4356000E-02 vol1(ndkx)
** DEBUG  :           54  2.4356000E-02 volerror(ndkx)
** DEBUG  :           55  4.2102002E-02 voldhu(ndx)
** DEBUG  :           55  2.4356000E-02 sqa(ndkx)
** DEBUG  :           55  4.2102002E-02 cfuhi(lnx)
** DEBUG  :           55  2.4356000E-02 frcu (lnx)
** DEBUG  :           56  2.4356000E-02 ifrcutp(lnx)
** DEBUG  :           56  4.2102002E-02 wdsu  (lnx)
** DEBUG  :           56  2.4356000E-02 czs(ndx)
** DEBUG  :           56  2.4356000E-02 frculin (lnx)
** DEBUG  :           57  4.2102002E-02 u0   (lnkx)
** DEBUG  :           57  4.2102002E-02 u1   (lnkx)
** DEBUG  :           57  4.2102002E-02 q1   (lnkx)
** DEBUG  :           58  4.2102002E-02 qa   (lnkx)
** DEBUG  :           58  4.2102002E-02 v    (lnkx)
** DEBUG  :           58  4.2102002E-02 ucxu (lnkx)
** DEBUG  :           59  4.2102002E-02 ucyu (lnkx)
** DEBUG  :           59  4.2102002E-02 hu   (lnkx)
** DEBUG  :           59  4.2102002E-02 huvli(lnkx)
** DEBUG  :           60  4.2102002E-02 au   (lnkx)
** DEBUG  :           60  4.2102002E-02 viu  (lnkx)
** DEBUG  :           60  4.2102002E-02 cflj (lnkx)
** DEBUG  :           61  4.2102002E-02 tetaj(lnkx)
** DEBUG  :           61  4.2102002E-02 suu  (lnkx)
** DEBUG  :           61  4.2102002E-02 advi (lnkx)
** DEBUG  :           62  4.2102002E-02 adve (lnkx)
** DEBUG  :           62  4.2102002E-02 plotlin(max(lnkx,ndkx))
** DEBUG  :           62  2.4356000E-02 numlimdt(ndx)
** DEBUG  :           62  2.4356000E-02 bb   (ndx )
** DEBUG  :           63  2.4356000E-02 dd   (ndx )
** DEBUG  :           63  2.4356000E-02 fu   (lnkx)
** DEBUG  :           63  2.4356000E-02 ru   (lnkx)
** DEBUG  :           63  2.4356000E-02 rich(lnkx)
** INFO   : Building kdtree...
** INFO   : done
** INFO   : Finding crossed flowlinks...
** INFO   : done
** INFO   : Delete kdtree...
** INFO   : Building kdtree...
** INFO   : done
** INFO   : Finding flow nodes...
** INFO   : done in      0.00700 sec.
** INFO   : Delete kdtree...
** INFO   : Start initializing external forcings...
** DEBUG  :           63  2.3999999E-03 xbndz(nbndz), ybndz(nbndz), xy2bndz(2,nbndz), zbndz(nbndz), kbndz(n4,nbndz), zbndz0(nbndz), kdz(nbndz)
** INFO   : External Forcing or Initialising 'neumannbnd' from file 'zm_tide_001.pli'.
** INFO   : External Forcing or Initialising 'waterlevelbnd' from file 'zm_tide_002.pli'.
** INFO   : External Forcing or Initialising 'neumannbnd' from file 'zm_tide_003.pli'.
** INFO   : Closed file : zm_tide.ext
** INFO   : No wind, so waves is switched off
** INFO   : Done initializing external forcings.
** DEBUG  :           64  4.2102002E-02 klnup(6,lnx)
** DEBUG  :           64  4.2102002E-02 slnup(6,lnx)
** DEBUG  :           64  2.4356000E-02 ij(nodtot)
** DEBUG  :           64  2.4356000E-02 nodbr2(nodtot)
** DEBUG  :           65  2.4356000E-02 nbrstk(nodtot)
** DEBUG  :           65  2.4356000E-02 nodstk(nodtot)
** DEBUG  :           65  2.4356000E-02 noel(nodtot)
** DEBUG  :           65  2.4356000E-02 noel0(nodtot)
** DEBUG  :           65  2.4356000E-02 ia(nodtot)
** DEBUG  :           66  2.4356000E-02 row(nodtot)
** DEBUG  :           66  4.2102002E-02 lv2(lintot)
** DEBUG  :           66  2.4356000E-02 jagauss(nodtot)
** DEBUG  :           69  9.7253002E-02 ccr(0:ijstck)
** DEBUG  :           70  9.7253002E-02 bbl(0:ijstck)
** DEBUG  :           70  4.8712000E-02 bbr(nodtot), ddr(nodtot)
** DEBUG  :           71  0.1217800     d0(nodtot), zkr(nodtot),pk(0:nodtot), apk(nodtot), rk(nodtot)
** INFO   : nogauss , nocg :          13831         10525
** INFO   : Building kdtree...
** INFO   : done
** INFO   : Finding crossed flowlinks...
** INFO   : done
** INFO   : Delete kdtree...
** INFO   : Building kdtree...
** INFO   : done
** INFO   : Finding flow nodes...
** INFO   : done in      0.00400 sec.
** INFO   : Delete kdtree...
** INFO   : Modelinit finished   at: 16:58:45, 01-08-2016
** INFO   : ** Model initialization was successful **
** INFO   : * Active Model definition:
# Generated on 16:58:45, 01-08-2016
# Deltares, D-Flow FM Version 1.1.179.45170, Mar 22 2016, 14:45:56

[model]
Program                           = D-Flow FM
Version                           = 1.1.179.45170
MDUFormatVersion                  = 1.05                # File format version (do not edit this)
AutoStart                         = 0                   # Autostart simulation after loading MDU (0: no, 1: autostart, 2: autostartstop)

[geometry]
NetFile                           = scenarioa_04_wbthy_net.nc# Unstructured grid file *_net.nc
BathymetryFile                    =                     # Bathymetry points file *.xyb
DryPointsFile                     =                     # Dry points file *.xyz (third column dummy z values), or dry areas polygon file *.pol (third column 1/-1: inside/outside)
WaterLevIniFile                   =                     # Initial water levels sample file *.xyz
LandBoundaryFile                  =                     # Land boundaries file *.ldb, used for visualization
ThinDamFile                       =                     # Polyline file *_thd.pli, containing thin dams
FixedWeirFile                     =                     # Polyline file *_fxw.pliz, containing fixed weirs with rows x, y, crest level, left ground level, right ground level
VertplizFile                      =                     # Vertical layering file *_vlay.pliz with rows x, y, Z, first Z, nr of layers, second Z, layer type
ProflocFile                       =                     # Channel profile location file *_proflocation.xyz with rows x, y, z, profile number ref
ProfdefFile                       =                     # Channel profile definition file *_profdefinition.def with definition for all profile numbers
ProfdefxyzFile                    =                     # Channel profile definition file _profdefinition.def with definition for all profile numbers
Uniformwidth1D                    = 2.                  # Uniform width for channel profiles not specified by profloc
StructureFile                     =                     # File *.ini containing list of structures (pumps, weirs, gates and general structures)
ManholeFile                       =                     # File *.ini containing manholes
WaterLevIni                       = -0.22               # Initial water level at missing s0 values
Bedlevuni                         = -5.                 # Uniform bed level used at missing z values if BedlevType > 2
Bedslope                          = 0.                  # Bed slope inclination if BedlevType > 2
BedlevType                        = 3                   # Bathymetry specification
                                                        # 1: at cell centers (from BathymetryFile)
                                                        # 2: at faces (from BathymetryFile)
                                                        # 3: at nodes, face levels mean of node values
                                                        # 4: at nodes, face levels min. of node values
                                                        # 5: at nodes, face levels max. of node values
                                                        # 6: at nodes, face levels max. of cell-center values
Blmeanbelow                       = -999.               # If not -999d0, below this level the cell center bed level is the mean of surrouding net nodes
Blminabove                        = -999.               # If not -999d0, above this level the cell center bed level is the min. of surrouding net nodes
PartitionFile                     =                     # Domain partition polygon file *_part.pol for parallel run
AngLat                            = 52.                 # Angle of latitude S-N (deg), 0: no Coriolis
AngLon                            = 0.                  # Angle of longitude E-W (deg), 0: Greenwich, used in solar heat flux computation.
Conveyance2D                      = 3                   # -1: R=HU,0: R=H, 1: R=A/P, 2: K=analytic-1D conv, 3: K=analytic-2D conv
Nonlin2D                          = 0                   # Non-linear 2D volumes, only used if ibedlevtype=3 and Conveyance2D>=1
Sillheightmin                     = 0.5                 # Weir treatment only if both sills larger than this value (m)
Makeorthocenters                  = 0                   # Switch from circumcentres to orthocentres in geominit (i>=1: number of iterations, 0: do not use)
Dcenterinside                     = 1.                  # Limit cell center (1.0: in cell, 0.0: on c/g)
Bamin                             = 1.d-6               # Minimum grid cell area, in combination with cut cells
OpenBoundaryTolerance             = 3.                  # Search tolerance factor between boundary polyline and grid cells, in cell size units
RenumberFlowNodes                 = 0                   # Renumber the flow nodes (1: yes, 0: no)
Kmx                               = 0                   # Maximum number of vertical layers
Layertype                         = 1                   # Vertical layer type (1: all sigma, 2: all z, 3: use VertplizFile)
Numtopsig                         = 0                   # Number of sigma layers in top of z-layer model
SigmaGrowthFactor                 = 1.                  # Layer thickness growth factor from bed up
StretchType                       = 0                   # Type of layer stretching, 0 = uniform, 1 = user defined, 2 = exponential, 3 = twice exponential

[numerics]
CFLMax                            = 0.7                 # Maximum Courant number
Lincontin                         = 0                   # Default 0; Set to 1 for linearizing d(Hu)/dx; link to AdvecType
AdvecType                         = 3                   # Advection type (0: none, 1: Wenneker, 2: Wenneker q(uio-u), 3: Perot q(uio-u), 4: Perot q(ui-u), 5: Perot q(ui-u) without itself)
TimeStepType                      = 2                   # Time step handling (0: only transport, 1: transport + velocity update, 2: full implicit step-reduce, 3: step-Jacobi, 4: explicit)
Limtyphu                          = 0                   # Limiter type for waterdepth in continuity eqn. (0: none, 1: minmod, 2: van Leer, 3: Kooren, 4: monotone central)
Limtypmom                         = 4                   # Limiter type for cell center advection velocity (0: none, 1: minmod, 2: van Leer, 3: Kooren, 4: monotone central)
Limtypsa                          = 4                   # Limiter type for salinity transport (0: none, 1: minmod, 2: van Leer, 3: Kooren, 4: monotone central)
TransportMethod                   = 1                   # Transport method (0: Herman's method, 1: transport module)
TransportTimestepping             = 0                   # Timestepping method in Transport module, 0 = global (default) , 1 = local
Vertadvtypsal                     = 5                   # Vertical advection type for salinity (0: none, 1: upwind explicit, 2: central explicit, 3: upwind implicit, 4: central implicit, 5: central implicit but upwind for neg. stratif., 6: higher order explicit, no Forester)
Vertadvtyptem                     = 6                   # Vertical advection type for temperature (0: none, 1: upwind explicit, 2: central explicit, 3: upwind implicit, 4: central implicit, 5: central implicit but upwind for neg. stratif., 6: higher order explicit, no Forester)
Cffacver                          = 0.                  # Factor for including (1-CFL) in HO term vertical   (0d0: no, 1d0: yes)
Jarhoxu                           = 0                   # Inlcude density gradient in advection term (0: no, 1: yes, 2: Also in barotrop and baroclin pressure term)
Horadvtypzlayer                   = 0                   # Horizontal advection treatment of z-layers (1: default, 2: sigma-like)
Zlayeratubybob                    = 0                   # Lowest connected cells governed by bob instead of by bL L/R
Icgsolver                         = 4                   # Solver type (1: sobekGS_OMP, 2: sobekGS_OMPthreadsafe, 3: sobekGS, 4: sobekGS + Saadilud, 5: parallel/global Saad, 6: parallel/Petsc, 7: parallel/GS)
Maxdegree                         = 6                   # Maximum degree in Gauss elimination
FixedWeirScheme                   = 0                   # Fixed weir scheme (0: none, 1: compact stencil, 2: whole tile lifted, full subgrid weir + factor)
FixedWeirContraction              = 1.                  # Fixed weir flow width contraction factor
Fixedweirfrictscheme              = 1                   # Fixed weir friction scheme (0: friction based on hu, 1: friction based on subgrid weir friction scheme)
Fixedweirtopwidth                 = 3.                  # Uniform width of the groyne part of fixed weirs
Fixedweirtopfrictcoef             = -999.               # Uniform friction coefficient of the groyne part of fixed weirs
Fixedweirtalud                    = 0.25                # Uniform talud slope of fixed weirs
Izbndpos                          = 0                   # Position of z boundary (0: D3Dflow, 1: on net boundary, 2: on specifiend polyline)
Tlfsmo                            = 3600.               # Fourier smoothing time (s) on water level boundaries
Slopedrop2D                       = 0.                  # Apply drop losses only if local bed slope > Slopedrop2D, (<=0: no drop losses)
Drop3D                            = -999.               # Apply droplosses in 3D if z upwind below bob + 2/3 hu*drop3D
Chkadvd                           = 0.1                 # Check advection terms if depth < chkadvdp, => less setbacks
Trsh_u1Lb                         = 0.                  # 2D bedfriction in 3D below this threshold (m)
Zwsbtol                           = 0.                  # tolerance for zws(kb-1) at bed
Keepzlayeringatbed                = 1                   #  bedlayerthickness = zlayerthickness at bed 0 or 1
Teta0                             = 0.55                # Theta of time integration (0.5 < theta < 1)
Qhrelax                           = 1.d-2               # Relaxation on Q-h open boundaries
Jbasqbnddownwindhs                = 0                   # Water depth scheme at discharge boundaries (0: original hu, 1: downwind hs)
cstbnd                            = 0                   # Delft-3D type velocity treatment near boundaries for small coastal models (1: yes, 0: no)
Maxitverticalforestersal          = 100                 # Forester iterations for salinity (0: no vertical filter for salinity, > 0: max nr of iterations)
Maxitverticalforestertem          = 0                   # Forester iterations for temperature (0: no vertical filter for temperature, > 0: max nr of iterations)
Jaorgsethu                        = 1                   # Velocity reconstruction scheme (0 : setumod, sethu, setau sequence, 1 : sethu, setau, setumod sequence (standard))
Turbulencemodel                   = 1                   # Turbulence model (0: none, 1: constant, 2: algebraic, 3: k-epsilon, 4: k-tau)
Turbulenceadvection               = 0                   # Turbulence advection (0: none, 3: horizontally explicit and vertically implicit)
AntiCreep                         = 0                   # Include anti-creep calculation (0: no, 1: yes)
Maxwaterleveldiff                 = 0.                  # upper bound (in m) on water level changes (<= 0: no bounds). Run will abort when violated.
Maxvelocitydiff                   = 0.                  # upper bound (in m/s) on velocity changes (<= 0: no bounds). Run will abort when violated.
MinTimestepBreak                  = 0.                  # smallest allowed timestep (in s), checked on a sliding average of several timesteps. Run will abort when violated.
Epshu                             = 1.d-4               # Threshold water depth for wet and dry cells
SobekDFM_umin                     = 0.                  # Minimal velocity treshold for weir losses in Sobek-DFM coupling.
SobekDFM_umin_method              = 0                   # Method for minimal velocity treshold for weir losses in Sobek-DFM coupling.

[physics]
UnifFrictCoef                     = 2.3d-2              # Uniform friction coefficient (0: no friction)
UnifFrictType                     = 1                   # Uniform friction type (0: Chezy, 1: Manning, 2: White-Colebrook, 3: idem, WAQUA style)
UnifFrictCoef1D                   = 2.3d-2              # Uniform friction coefficient in 1D links (0: no friction)
UnifFrictCoefLin                  = 0.                  # Uniform linear friction coefficient for ocean models (m/s) (0: no friction)
Umodlin                           = 0.                  # Linear friction umod, for ifrctyp=4,5,6
Vicouv                            = 1.                  # Uniform horizontal eddy viscosity (m2/s)
Dicouv                            = 1.                  # Uniform horizontal eddy diffusivity (m2/s)
Vicoww                            = 0.                  # Uniform vertical eddy viscosity (m2/s)
Dicoww                            = 0.                  # Uniform vertical eddy diffusivity (m2/s)
Vicwminb                          = 0.                  # Minimum visc in prod and buoyancy term (m2/s)
Smagorinsky                       = 0.                  # Smagorinsky factor in horizontal turbulence
Elder                             = 0.                  # Elder factor in horizontal turbulence
irov                              = 0                   # 0=free slip, 1 = partial slip using wall_ks
wall_ks                           = 0.                  # Wall roughness type (0: free slip, 1: partial slip using wall_ks)
Rhomean                           = 1023.               # Average water density (kg/m3)
Idensform                         = 0                   # Density calulation (0: uniform, 1: Eckard, 2: Unesco, 3: baroclinic case)
Ag                                = 9.81                # Gravitational acceleration
TidalForcing                      = 0                   # Tidal forcing, if jsferic=1 (0: no, 1: yes)
SelfAttractionLoading             = 0                   # Self attraction and loading (0=no, 1=yes, 2=only self attraction)
Doodsonstart                      = 55.565              # TRIWAQ: 55.565, D3D: 57.555
Doodsonstop                       = 375.575             # TRIWAQ: 375.575, D3D: 275.555
Doodsoneps                        = 0.                  # TRIWAQ = 0.0  400 cmps , D3D = 0.03   60 cmps
Salinity                          = 0                   # Include salinity, (0=no, 1=yes)
InitialSalinity                   = 0.                  # Uniform initial salinity concentration (ppt)
Sal0abovezlev                     = -999.               # Vertical level (m) above which salinity is set 0
DeltaSalinity                     = -999.               # for testcases
Backgroundsalinity                = 30.                 # Background salinity for eqn. of state (ppt)
Backgroundwatertemperature        = 6.                  # Background water temperature for eqn. of state (deg C)
Temperature                       = 0                   # Include temperature (0: no, 1: only transport, 3: excess model of D3D, 5: composite (ocean) model)
InitialTemperature                = 6.                  # Uniform initial water temperature (degC)
Secchidepth                       = 1.                  # Water clarity parameter (m)
Stanton                           = -1.                 # Coefficient for convective heat flux
Dalton                            = -1.                 # Coefficient for evaporative heat flux
SecondaryFlow                     = 0                   # Secondary flow (0: no, 1: yes)
EffectSpiral                      = 0.                  # Weight factor of the spiral flow intensity on transport angle
BetaSpiral                        = 0.                  # Weight factor of the spiral flow intensity on flow dispersion stresses

[sediment]
Sedimentmodelnr                   = 0                   # Sediment model nr, (0=no, 1=Krone, 2=SvR2007)
SedFile                           =                     # Sediment characteristics file (*.sed)
MorFile                           =                     # Morphology settings file (*.mor)
Nr_of_sedfractions                = 0                   # Nr of sediment fractions, (specify the next parameters for each fraction)
MxgrKrone                         = 0                   # Highest fraction index treated by Krone
D50                               =                     # Mean Sandgrain diameter (m), e.g. 0.0001
Rhosed                            =                     # Mean Sandgrain rho (kg/m3) , e.g. 2650
InitialSedimentConcentration      =                     # Initial sediment concentration (kg /m3)
Uniformerodablethickness          =                     # Uniform erodable layer thickness (m)
Numintverticaleinstein            = 10                  # Number of vertical intervals in Einstein integrals ( )
Jaceneqtr                         = 2                   # 1=equilibriumtransport at cell centre, 2= at netnode (default) ( )
Morfac                            = 1.                  # Morphological acceleration factor (), bottom updates active for morfac > 0, 1d0=realtime, etc
TMorfspinup                       = 0.                  # Spin up time for morphological adaptations (s)
Alfabed                           = 1.                  # Calibration par bed      load, default=1d0 ( )
Alfasus                           = 1.                  # Calibration par suspende load, default=1d0 ( )
Crefcav                           = 20.                 # Calibration par only in jased==3, default=20d0 ( )

[grw]
Conductivity                      = 0.                  # non dimensionless K conductivity   saturated (m/s), Q = K*A*i (m3/s)
h_aquiferuni                      = 20.                 # uniform height of carrying layer (m)
h_unsatini                        = 0.200000002980232   # initial level groundwater is bedlevel - h_unsatini (m)

[wind]
ICdtyp                            = 3                   # Wind drag coefficient type (1: constant, 2: S&B 2 breakpoints, 3: S&B 3 breakpoints, 4: Charnock constant, 5: Whang)
Cdbreakpoints                     = 6.3d-4 7.23d-3 7.23d-3# Wind drag coefficient break points
Windspeedbreakpoints              = 0. 100. 100.1       # Wind speed break points (m/s)
Rhoair                            = 1.25                # Air density (kg/m3)
PavBnd                            = 101325.             # Average air pressure on open boundaries (N/m2) (only applied if > 0)
PavIni                            = 0.                  # Average air pressure for initial water level correction (N/m2) (only applied if > 0)

[waves]
Wavemodelnr                       = 0                   # Wave model nr. (0: none, 1: fetch/depth limited hurdlestive, 2: Young-Verhagen, 3: SWAN, 4: wave group forcing)
WaveNikuradse                     = 1.d-2               # Wave friction Nikuradse ks coefficient (m), used in Krone-Swart
Rouwav                            = FR84                # Friction model for wave induced shear stress
Gammax                            = 1.                  # Maximum wave height/water depth ratio

[time]
RefDate                           = 20110801            # Reference date (yyyymmdd)
Tzone                             = 0.                  # Time zone assigned to input time series
DtUser                            = 6.                  # Time interval (s) for external forcing update
DtNodal                           = 0.                  # Time interval (s) for updating nodal factors in astronomical boundary conditions
DtMax                             = 6.                  # Maximal computation timestep (s)
Dtfacmax                          = 1.1                 # Max timestep increase factor ( )
DtInit                            = 3.                  # Initial computation timestep (s)
Tunit                             = M                   # Time unit for start/stop times (D, H, M or S)
TStart                            = 479520.             # Start time w.r.t. RefDate (in TUnit)
TStop                             = 485280.             # Stop  time w.r.t. RefDate (in TUnit)

[restart]
RestartFile                       =                     # Restart netcdf-file, either *_rst.nc or *_map.nc
RestartDateTime                   = 20110801            # Restart date and time (YYYYMMDDHHMMSS) when restarting from *_map.nc

[external forcing]
ExtForceFile                      = zm_tide.ext         # Old format for external forcings file *.ext, link with tim/cmp-format boundary conditions specification
ExtForceFileNew                   =                     # New format for external forcings file *.ext, link with bc-format boundary conditions specification
Rainfall                          = 0                   # Include rainfall, (0=no, 1=yes)

[trachytopes]
TrtRou                            = N                   # Include alluvial and vegetation roughness (trachytopes) (Y: yes, N: no)
TrtDef                            =                     # File (*.ttd) including trachytope definitions
Trtl                              =                     # File (*.arl) including distribution of trachytope definitions
DtTrt                             = 1200.               # Trachytope roughness update time interval (s)

[output]
OutputDir                         =                     # Output directory of map-, his-, rst-, dat- and timings-files, default: DFM_OUTPUT_<modelname>. Set to . for current dir.
FlowGeomFile                      =                     # Flow geometry NetCDF *_flowgeom.nc
ObsFile                           = zm_tide_obs.xyn     # Points file *.xyn with observation stations with rows x, y, station name
CrsFile                           = zm_tide_crs.pli     # Polyline file *_crs.pli defining observation cross sections
HisInterval                       = 300.                # History output times, given as "interval" "start period" "end period" (s)
XLSInterval                       = 0.                  # Interval (s) between XLS history
MapInterval                       = 900.                # Map file output, given as "interval" "start period" "end period" (s)
RstInterval                       = 86400.              # Restart file output times, given as "interval" "start period" "end period" (s)
S1incinterval                     = 0.                  # Interval (m) in incremental file for water levels S1
WaqInterval                       = 0.                  # Interval (in s) between DELWAQ file outputs
StatsInterval                     = 3600.               # Interval (in s) between simulation statistics output.
Writebalancefile                  = 0                   # Write balance file (1: yes, 0: no)
TimingsInterval                   = 1.                  # Timings statistics output interval
TimeSplitInterval                 = 0X                  # Time splitting interval, after which a new output file is started. value+unit, e.g. '1 M', valid units: Y,M,D,h,m,s.
MapFormat                         = 1                   # Map file format, 1: netCDF, 2: Tecplot, 3: netCFD and Tecplot, 4: NetCDF-UGRID
Wrihis_balance                    = 1                   # Write mass balance totals to his file (1: yes, 0: no)
Wrihis_structure_gen              = 1                   # Write general structure parameters to his file (1: yes, 0: no)
Wrihis_structure_dam              = 1                   # Write dam parameters to his file (1: yes, 0: no)
Wrihis_structure_pump             = 1                   # Write pump parameters to his file (1: yes, 0: no)
Wrihis_structure_gate             = 1                   # Write gate parameters to his file (1: yes, 0: no)
Wrihis_structure_weir             = 1                   # Write weir parameters to his file (1: yes, 0: no)
Wrimap_waterlevel_s0              = 1                   # Write water levels for previous time step to map file (1: yes, 0: no)
Wrimap_waterlevel_s1              = 1                   # Write water levels to map file (1: yes, 0: no)
Wrimap_velocity_component_u0      = 1                   # Write velocity component for previous time step to map file (1: yes, 0: no)
Wrimap_velocity_component_u1      = 1                   # Write velocity component to map file (1: yes, 0: no)
Wrimap_velocity_vector            = 1                   # Write cell-center velocity vectors to map file (1: yes, 0: no)
Wrimap_upward_velocity_component  = 0                   # Write upward velocity component on cell interfaces (1: yes, 0: no)
Wrimap_density_rho                = 1                   # Write flow density to map file (1: yes, 0: no)
Wrimap_horizontal_viscosity_viu   = 1                   # Write horizontal viscosity to map file (1: yes, 0: no)
Wrimap_horizontal_diffusivity_diu = 1                   # Write horizontal diffusivity to map file (1: yes, 0: no)
Wrimap_flow_flux_q1               = 1                   # Write flow flux to map file (1: yes, 0: no)
Wrimap_spiral_flow                = 1                   # Write spiral flow to map file (1: yes, 0: no)
Wrimap_numlimdt                   = 1                   # Write the number times a cell was Courant limiting to map file (1: yes, 0: no)
Wrimap_taucurrent                 = 1                   # Write the shear stress to map file (1: yes, 0: no)
Wrimap_chezy                      = 1                   # Write the chezy roughness to map file (1: yes, 0: no)
Wrimap_turbulence                 = 1                   # Write vicww, k and eps to map file (1: yes, 0: no)
Wrimap_wind                       = 1                   # Write wind velocities to map file (1: yes, 0: no)
MapOutputTimeVector               =                     # File (*.mpt) containing fixed map output times (s) w.r.t. RefDate
FullGridOutput                    = 0                   # Full grid output mode (0: compact, 1: full time-varying grid data)
EulerVelocities                   = 0                   # Euler velocities output (0: GLM, 1: Euler velocities)
** INFO   : **
** INFO   : Writing initial output to file(s)...
** DEBUG  : Opened NetCDF file 'DFM_OUTPUT_zm_tide\zm_tide_his.nc' as #4.
** DEBUG  : Opened NetCDF file 'DFM_OUTPUT_zm_tide\zm_tide_map.nc' as #5.
** DEBUG  : Opened NetCDF file 'DFM_OUTPUT_zm_tide\zm_tide_20120629_000000_rst.nc' as #6.
** DEBUG  : Closed NetCDF file 'DFM_OUTPUT_zm_tide\zm_tide_20120629_000000_rst.nc.
** INFO   :    Sim. time done   Sim. time left   Real time used   Real time left Steps left Complete% Interval-averaged time step
** INFO   :       0d  0:00:06      3d 23:59:54      0d  0:00:00     ??d ??:??:??      57599     0.0%************
** INFO   : Done writing initial output to file(s).
** INFO   :       0d  1:00:00      3d 23:00:00      0d  0:00:44      0d  1:09:27      57000     1.0%     6.00000
** INFO   :       0d  2:00:00      3d 22:00:00      0d  0:01:37      0d  1:16:22      56400     2.1%     6.00000
** INFO   :       0d  3:00:00      3d 21:00:00      0d  0:02:08      0d  1:06:13      55800     3.1%     6.00000
** INFO   :       0d  4:00:00      3d 20:00:00      0d  0:02:33      0d  0:58:38      55200     4.2%     6.00000
** INFO   : User interrupt
** INFO   : Shortstop
** DEBUG  : Closed NetCDF file 'DFM_OUTPUT_zm_tide\zm_tide_map.nc.
** DEBUG  : Closed NetCDF file 'DFM_OUTPUT_zm_tide\zm_tide_his.nc.
** DEBUG  : Closed NetCDF file 'scenarioA_04_wbthy_net.nc.
